LAMMPS (23 Oct 2017)
# This file runs a simple bouncing ball simulation in LAMMPS.
#~~~~~~~~~~~~~~~~~~~~~~~~~~~~~~~~~~~~~~~~~~~~~~~~~~~~~~~~~~~~~~~~~~~~~
variable G equal 2.9e4
variable nu equal 0.2
variable mu equal 0.25

variable Kn equal 4*29000/(3*(1-0.2))
variable Kt equal 4*29000/(2-0.2)

# Initialisation ~~~~~~~~~~~~~~~~~~~~~~~~~~~~~~~~~~~~~~~~~~~~~~~~~~~~~
units		si # This means m, kg, s for base units.
boundary	p p f
atom_style	sphere
dimension	3
newton		off
comm_modify	mode single vel yes

# Create particles ~~~~~~~~~~~~~~~~~~~~~~~~~~~~~~~~~~~~~~~~~~~~~~~~~~~
atom_modify 	map array # specifies how neighbour list is set up
read_data	Bouncing_Ball.lj
  orthogonal box = (0 0 0) to (0.0015 0.0015 0.0025)
  reading atoms ...
  1 atoms
  reading velocities ...
  1 velocities

# Pre-fix settings ~~~~~~~~~~~~~~~~~~~~~~~~~~~~~~~~~~~~~~~~~~~~~~~~~~~
neighbor	0.001 bin # ~10% of diameter of largest particle
neigh_modify	delay 0 every 50

pair_style	gran/hertz/history 48333.3333333333 64444.4444444444 0. 0. 0.25 0
pair_coeff	* *
timestep	1e-5
run_style	verlet

fix		    1 all nve/sphere
variable	g equal 9.81 # Add gravity
#fix 		2 all gravity $g vector 0 0 -1
# Add wall position and contact parameters
fix 		3 all wall/gran hertz/history 48333.3333333333 64444.4444444444 0. 0. 0.25 0 zplane 0.000000 1.0

variable 	step equal step
variable	xz equal z[1]
variable	vz equal vz[1]
variable	forcez equal fz[1]

fix         5 all cpl/init region all forcetype test sendtype velocity Nfreq 50 Nrepeat 50 Nevery 1
compute cfdbccompute all chunk/atom bin/3d x lower 0.0001875 y lower 0.0001875 z lower 0.0003125 ids every region cfdbcregion units box  bound x 0 0.0015 bound y 0 0.0015 bound z 0 0.0025
fix cfdbcfix all ave/chunk 1 50 50 cfdbccompute vx vy vz norm all
variable CPLSTEPS equal 0
group cplforcegroup dynamic all region cplforceregion every 1
dynamic group cplforcegroup defined

#dump        6 all dcd 10 vmd_out.dcd

run		    5000
  update every 50 steps, delay 0 steps, check yes
Step Temp E_pair E_mol TotEng Press
0            0            0            0            0            0
Loop time of 0.212354 on 8 procs for 5000 steps with 1 atoms
